# generated using pymatgen
data_Ag3P11
_symmetry_space_group_name_H-M   'P 1'
_cell_length_a   13.02619754
_cell_length_b   7.58144051
_cell_length_c   6.62176109
_cell_angle_alpha   90.00000000
_cell_angle_beta   118.92048183
_cell_angle_gamma   90.00000000
_symmetry_Int_Tables_number   1
_chemical_formula_structural   Ag3P11
_chemical_formula_sum   'Ag6 P22'
_cell_volume   572.39484513
_cell_formula_units_Z   2
loop_
 _symmetry_equiv_pos_site_id
 _symmetry_equiv_pos_as_xyz
  1  'x, y, z'
loop_
 _atom_site_type_symbol
 _atom_site_label
 _atom_site_symmetry_multiplicity
 _atom_site_fract_x
 _atom_site_fract_y
 _atom_site_fract_z
 _atom_site_occupancy
  Ag  Ag0  1  0.70811999  0.00000000  0.96711654  1.0
  Ag  Ag1  1  0.41167430  0.00000000  0.19954985  1.0
  Ag  Ag2  1  0.99938008  0.00000000  0.99420862  1.0
  Ag  Ag3  1  0.20811999  0.50000000  0.96711654  1.0
  Ag  Ag4  1  0.91167430  0.50000000  0.19954985  1.0
  Ag  Ag5  1  0.49938008  0.50000000  0.99420862  1.0
  P  P6  1  0.18986355  0.00000000  0.95617609  1.0
  P  P7  1  0.50883074  0.00000000  0.94786383  1.0
  P  P8  1  0.91695164  0.00000000  0.27209325  1.0
  P  P9  1  0.47939603  0.25628552  0.46929447  1.0
  P  P10  1  0.47939603  0.74371448  0.46929447  1.0
  P  P11  1  0.23793299  0.14896711  0.49910301  1.0
  P  P12  1  0.23793299  0.85103289  0.49910301  1.0
  P  P13  1  0.66699210  0.72185179  0.72853255  1.0
  P  P14  1  0.66699210  0.27814821  0.72853255  1.0
  P  P15  1  0.42026724  0.22818712  0.73436739  1.0
  P  P16  1  0.42026724  0.77181288  0.73436739  1.0
  P  P17  1  0.68986355  0.50000000  0.95617609  1.0
  P  P18  1  0.00883074  0.50000000  0.94786383  1.0
  P  P19  1  0.41695164  0.50000000  0.27209325  1.0
  P  P20  1  0.97939603  0.75628552  0.46929447  1.0
  P  P21  1  0.97939603  0.24371448  0.46929447  1.0
  P  P22  1  0.73793299  0.64896711  0.49910301  1.0
  P  P23  1  0.73793299  0.35103289  0.49910301  1.0
  P  P24  1  0.16699210  0.22185179  0.72853255  1.0
  P  P25  1  0.16699210  0.77814821  0.72853255  1.0
  P  P26  1  0.92026724  0.72818712  0.73436739  1.0
  P  P27  1  0.92026724  0.27181288  0.73436739  1.0
