# generated using pymatgen
data_Ag4HgGe2S7
_symmetry_space_group_name_H-M   'P 1'
_cell_length_a   17.83212200
_cell_length_b   6.94876600
_cell_length_c   10.66264830
_cell_angle_alpha   90.00000000
_cell_angle_beta   93.09416465
_cell_angle_gamma   90.00000000
_symmetry_Int_Tables_number   1
_chemical_formula_structural   Ag4HgGe2S7
_chemical_formula_sum   'Ag16 Hg4 Ge8 S28'
_cell_volume   1319.29589189
_cell_formula_units_Z   4
loop_
 _symmetry_equiv_pos_site_id
 _symmetry_equiv_pos_as_xyz
  1  'x, y, z'
loop_
 _atom_site_type_symbol
 _atom_site_label
 _atom_site_symmetry_multiplicity
 _atom_site_fract_x
 _atom_site_fract_y
 _atom_site_fract_z
 _atom_site_occupancy
  Ag  Ag0  1  0.99572200  0.82466700  0.00070700  1.0
  Ag  Ag1  1  0.99572200  0.17533300  0.50070700  1.0
  Ag  Ag2  1  0.56438500  0.17439300  0.38705000  1.0
  Ag  Ag3  1  0.56438500  0.82560700  0.88705000  1.0
  Ag  Ag4  1  0.71192700  0.18228000  0.09778200  1.0
  Ag  Ag5  1  0.71192700  0.81772000  0.59778200  1.0
  Ag  Ag6  1  0.77441150  0.37364950  0.44535300  1.0
  Ag  Ag7  1  0.77441150  0.62635050  0.94535300  1.0
  Ag  Ag8  1  0.49572200  0.32466700  0.00070700  1.0
  Ag  Ag9  1  0.49572200  0.67533300  0.50070700  1.0
  Ag  Ag10  1  0.06438500  0.67439300  0.38705000  1.0
  Ag  Ag11  1  0.06438500  0.32560700  0.88705000  1.0
  Ag  Ag12  1  0.21192700  0.68228000  0.09778200  1.0
  Ag  Ag13  1  0.21192700  0.31772000  0.59778200  1.0
  Ag  Ag14  1  0.27441150  0.87364950  0.44535300  1.0
  Ag  Ag15  1  0.27441150  0.12635050  0.94535300  1.0
  Hg  Hg16  1  0.84942050  0.81612150  0.28713300  1.0
  Hg  Hg17  1  0.84942050  0.18387850  0.78713300  1.0
  Hg  Hg18  1  0.34942050  0.31612150  0.28713300  1.0
  Hg  Hg19  1  0.34942050  0.68387850  0.78713300  1.0
  Ge  Ge20  1  0.92716800  0.32762600  0.17054000  1.0
  Ge  Ge21  1  0.92716800  0.67237400  0.67054000  1.0
  Ge  Ge22  1  0.63685150  0.67299650  0.24451100  1.0
  Ge  Ge23  1  0.63685150  0.32700350  0.74451100  1.0
  Ge  Ge24  1  0.42716800  0.82762600  0.17054000  1.0
  Ge  Ge25  1  0.42716800  0.17237400  0.67054000  1.0
  Ge  Ge26  1  0.13685150  0.17299650  0.24451100  1.0
  Ge  Ge27  1  0.13685150  0.82700350  0.74451100  1.0
  S  S28  1  0.53078800  0.33085900  0.59651900  1.0
  S  S29  1  0.53078800  0.66914100  0.09651900  1.0
  S  S30  1  0.66546800  0.36713500  0.28287900  1.0
  S  S31  1  0.66546800  0.63286500  0.78287900  1.0
  S  S32  1  0.72988050  0.81777650  0.14105700  1.0
  S  S33  1  0.72988050  0.18222350  0.64105700  1.0
  S  S34  1  0.83486150  0.30811750  0.01861900  1.0
  S  S35  1  0.83486150  0.69188250  0.51861900  1.0
  S  S36  1  0.88516050  0.17968950  0.34110300  1.0
  S  S37  1  0.88516050  0.82031050  0.84110300  1.0
  S  S38  1  0.96258300  0.36444300  0.70454200  1.0
  S  S39  1  0.96258300  0.63555700  0.20454200  1.0
  S  S40  1  0.61147300  0.82903900  0.41760500  1.0
  S  S41  1  0.61147300  0.17096100  0.91760500  1.0
  S  S42  1  0.03078800  0.83085900  0.59651900  1.0
  S  S43  1  0.03078800  0.16914100  0.09651900  1.0
  S  S44  1  0.16546800  0.86713500  0.28287900  1.0
  S  S45  1  0.16546800  0.13286500  0.78287900  1.0
  S  S46  1  0.22988050  0.31777650  0.14105700  1.0
  S  S47  1  0.22988050  0.68222350  0.64105700  1.0
  S  S48  1  0.33486150  0.80811750  0.01861900  1.0
  S  S49  1  0.33486150  0.19188250  0.51861900  1.0
  S  S50  1  0.38516050  0.67968950  0.34110300  1.0
  S  S51  1  0.38516050  0.32031050  0.84110300  1.0
  S  S52  1  0.46258300  0.86444300  0.70454200  1.0
  S  S53  1  0.46258300  0.13555700  0.20454200  1.0
  S  S54  1  0.11147300  0.32903900  0.41760500  1.0
  S  S55  1  0.11147300  0.67096100  0.91760500  1.0
