# generated using pymatgen
data_Ag2GeS3
_symmetry_space_group_name_H-M   'P 1'
_cell_length_a   7.02974826
_cell_length_b   11.82362937
_cell_length_c   6.44584315
_cell_angle_alpha   90.00000000
_cell_angle_beta   90.00000000
_cell_angle_gamma   90.00000000
_symmetry_Int_Tables_number   1
_chemical_formula_structural   Ag2GeS3
_chemical_formula_sum   'Ag8 Ge4 S12'
_cell_volume   535.76003456
_cell_formula_units_Z   4
loop_
 _symmetry_equiv_pos_site_id
 _symmetry_equiv_pos_as_xyz
  1  'x, y, z'
loop_
 _atom_site_type_symbol
 _atom_site_label
 _atom_site_symmetry_multiplicity
 _atom_site_fract_x
 _atom_site_fract_y
 _atom_site_fract_z
 _atom_site_occupancy
  Ag  Ag0  1  0.35021064  0.34464137  0.51166091  1.0
  Ag  Ag1  1  0.64978936  0.65535863  0.01166091  1.0
  Ag  Ag2  1  0.35021064  0.65535863  0.51166091  1.0
  Ag  Ag3  1  0.64978936  0.34464137  0.01166091  1.0
  Ag  Ag4  1  0.85021064  0.84464137  0.51166091  1.0
  Ag  Ag5  1  0.14978936  0.15535863  0.01166091  1.0
  Ag  Ag6  1  0.85021064  0.15535863  0.51166091  1.0
  Ag  Ag7  1  0.14978936  0.84464137  0.01166091  1.0
  Ge  Ge8  1  0.66077876  0.00000000  0.03959909  1.0
  Ge  Ge9  1  0.33922124  0.00000000  0.53959909  1.0
  Ge  Ge10  1  0.16077876  0.50000000  0.03959909  1.0
  Ge  Ge11  1  0.83922124  0.50000000  0.53959909  1.0
  S  S12  1  0.35983610  0.00000000  0.17586151  1.0
  S  S13  1  0.64016390  0.00000000  0.67586151  1.0
  S  S14  1  0.19381715  0.15630729  0.62210630  1.0
  S  S15  1  0.19381715  0.84369271  0.62210630  1.0
  S  S16  1  0.80618285  0.15630729  0.12210630  1.0
  S  S17  1  0.80618285  0.84369271  0.12210630  1.0
  S  S18  1  0.85983610  0.50000000  0.17586151  1.0
  S  S19  1  0.14016390  0.50000000  0.67586151  1.0
  S  S20  1  0.69381715  0.65630729  0.62210630  1.0
  S  S21  1  0.69381715  0.34369271  0.62210630  1.0
  S  S22  1  0.30618285  0.65630729  0.12210630  1.0
  S  S23  1  0.30618285  0.34369271  0.12210630  1.0
